<?xml version="1.0" encoding="UTF-8"?>

<!-- generated on 2026-01-01T15:42:22.490842-03:00 by Eclipse SUMO sumo 1.25.0
-->

<sumoConfiguration xmlns:xsi="http://www.w3.org/2001/XMLSchema-instance" xsi:noNamespaceSchemaLocation="http://sumo.dlr.de/xsd/sumoConfiguration.xsd">
<input>
    <net-file value="./intersection.net.xml"/>
    <route-files value="./flows.rou.xml"/>
</input>
</sumoConfiguration>
