<?xml version='1.0' encoding='utf-8'?>
<routes><vType id="car" accel="2.6" decel="4.5" length="5" sigma="0.5" maxSpeed="13.9" /><route id="r_e_w_01_straight" edges="e_w_01 e_w_02 e_w_03 e_w_04 e_w_05" /><route id="r_e_w_01_left" edges="e_w_01 e_w_02 n_s_03 n_s_04" /><route id="r_e_w_01_right" edges="e_w_01 e_n s_n_04" /><route id="r_e_w_01_uturn" edges="e_w_01 e_w_02 w_e_03 w_e_04 w_e_05" /><route id="r_n_s_01_straight" edges="n_s_01 n_s_02 n_s_03 n_s_04" /><route id="r_n_s_01_left" edges="n_s_01 n_w e_w_04 e_e w_e_02 w_e_03 w_e_04 w_e_05" /><route id="r_n_s_01_right" edges="n_s_01 n_w e_w_04 e_w_05" /><route id="r_n_s_01_uturn" edges="n_s_01 n_w e_w_04 e_e w_e_02 s_n_03 s_n_04" /><route id="r_s_n_01_straight" edges="s_n_01 s_n_02 s_n_03 s_n_04" /><route id="r_s_n_01_left" edges="s_n_01 s_e w_e_04 w_w e_w_02 e_w_03 e_w_04 e_w_05" /><route id="r_s_n_01_right" edges="s_n_01 s_e w_e_04 w_e_05" /><route id="r_s_n_01_uturn" edges="s_n_01 s_e w_e_04 w_w e_w_02 n_s_03 n_s_04" /><route id="r_w_e_01_straight" edges="w_e_01 w_e_02 w_e_03 w_e_04 w_e_05" /><route id="r_w_e_01_left" edges="w_e_01 w_e_02 s_n_03 s_n_04" /><route id="r_w_e_01_right" edges="w_e_01 w_s n_s_04" /><route id="r_w_e_01_uturn" edges="w_e_01 w_e_02 e_w_03 e_w_04 e_w_05" /><flow id="flow_0" begin="0" end="3600" vehsPerHour="2.69" type="car" departLane="best" departSpeed="max" route="r_e_w_01_right" /><flow id="flow_1" begin="0" end="3600" vehsPerHour="35.66" type="car" departLane="best" departSpeed="max" route="r_e_w_01_straight" /><flow id="flow_2" begin="0" end="3600" vehsPerHour="2.69" type="car" departLane="best" departSpeed="max" route="r_e_w_01_left" /><flow id="flow_3" begin="0" end="3600" vehsPerHour="3.96" type="car" departLane="best" departSpeed="max" route="r_e_w_01_uturn" /><flow id="flow_4" begin="0" end="3600" vehsPerHour="7.77" type="car" departLane="best" departSpeed="max" route="r_n_s_01_right" /><flow id="flow_5" begin="0" end="3600" vehsPerHour="103.01" type="car" departLane="best" departSpeed="max" route="r_n_s_01_straight" /><flow id="flow_6" begin="0" end="3600" vehsPerHour="7.77" type="car" departLane="best" departSpeed="max" route="r_n_s_01_left" /><flow id="flow_7" begin="0" end="3600" vehsPerHour="11.45" type="car" departLane="best" departSpeed="max" route="r_n_s_01_uturn" /><flow id="flow_8" begin="0" end="3600" vehsPerHour="7.77" type="car" departLane="best" departSpeed="max" route="r_s_n_01_right" /><flow id="flow_9" begin="0" end="3600" vehsPerHour="103.01" type="car" departLane="best" departSpeed="max" route="r_s_n_01_straight" /><flow id="flow_10" begin="0" end="3600" vehsPerHour="7.77" type="car" departLane="best" departSpeed="max" route="r_s_n_01_left" /><flow id="flow_11" begin="0" end="3600" vehsPerHour="11.45" type="car" departLane="best" departSpeed="max" route="r_s_n_01_uturn" /><flow id="flow_12" begin="0" end="3600" vehsPerHour="2.75" type="car" departLane="best" departSpeed="max" route="r_w_e_01_right" /><flow id="flow_13" begin="0" end="3600" vehsPerHour="36.45" type="car" departLane="best" departSpeed="max" route="r_w_e_01_straight" /><flow id="flow_14" begin="0" end="3600" vehsPerHour="2.75" type="car" departLane="best" departSpeed="max" route="r_w_e_01_left" /><flow id="flow_15" begin="0" end="3600" vehsPerHour="4.05" type="car" departLane="best" departSpeed="max" route="r_w_e_01_uturn" /><flow id="flow_16" begin="300" end="3900" vehsPerHour="3.59" type="car" departLane="best" departSpeed="max" route="r_e_w_01_right" /><flow id="flow_17" begin="300" end="3900" vehsPerHour="47.54" type="car" departLane="best" departSpeed="max" route="r_e_w_01_straight" /><flow id="flow_18" begin="300" end="3900" vehsPerHour="3.59" type="car" departLane="best" departSpeed="max" route="r_e_w_01_left" /><flow id="flow_19" begin="300" end="3900" vehsPerHour="5.28" type="car" departLane="best" departSpeed="max" route="r_e_w_01_uturn" /><flow id="flow_20" begin="300" end="3900" vehsPerHour="6.94" type="car" departLane="best" departSpeed="max" route="r_n_s_01_right" /><flow id="flow_21" begin="300" end="3900" vehsPerHour="91.91" type="car" departLane="best" departSpeed="max" route="r_n_s_01_straight" /><flow id="flow_22" begin="300" end="3900" vehsPerHour="6.94" type="car" departLane="best" departSpeed="max" route="r_n_s_01_left" /><flow id="flow_23" begin="300" end="3900" vehsPerHour="10.21" type="car" departLane="best" departSpeed="max" route="r_n_s_01_uturn" /><flow id="flow_24" begin="300" end="3900" vehsPerHour="6.94" type="car" departLane="best" departSpeed="max" route="r_s_n_01_right" /><flow id="flow_25" begin="300" end="3900" vehsPerHour="91.91" type="car" departLane="best" departSpeed="max" route="r_s_n_01_straight" /><flow id="flow_26" begin="300" end="3900" vehsPerHour="6.94" type="car" departLane="best" departSpeed="max" route="r_s_n_01_left" /><flow id="flow_27" begin="300" end="3900" vehsPerHour="10.21" type="car" departLane="best" departSpeed="max" route="r_s_n_01_uturn" /><flow id="flow_28" begin="300" end="3900" vehsPerHour="3.89" type="car" departLane="best" departSpeed="max" route="r_w_e_01_right" /><flow id="flow_29" begin="300" end="3900" vehsPerHour="51.50" type="car" departLane="best" departSpeed="max" route="r_w_e_01_straight" /><flow id="flow_30" begin="300" end="3900" vehsPerHour="3.89" type="car" departLane="best" departSpeed="max" route="r_w_e_01_left" /><flow id="flow_31" begin="300" end="3900" vehsPerHour="5.72" type="car" departLane="best" departSpeed="max" route="r_w_e_01_uturn" /><flow id="flow_32" begin="600" end="4200" vehsPerHour="3.53" type="car" departLane="best" departSpeed="max" route="r_e_w_01_right" /><flow id="flow_33" begin="600" end="4200" vehsPerHour="46.75" type="car" departLane="best" departSpeed="max" route="r_e_w_01_straight" /><flow id="flow_34" begin="600" end="4200" vehsPerHour="3.53" type="car" departLane="best" departSpeed="max" route="r_e_w_01_left" /><flow id="flow_35" begin="600" end="4200" vehsPerHour="5.19" type="car" departLane="best" departSpeed="max" route="r_e_w_01_uturn" /><flow id="flow_36" begin="600" end="4200" vehsPerHour="5.38" type="car" departLane="best" departSpeed="max" route="r_n_s_01_right" /><flow id="flow_37" begin="600" end="4200" vehsPerHour="71.31" type="car" departLane="best" departSpeed="max" route="r_n_s_01_straight" /><flow id="flow_38" begin="600" end="4200" vehsPerHour="5.38" type="car" departLane="best" departSpeed="max" route="r_n_s_01_left" /><flow id="flow_39" begin="600" end="4200" vehsPerHour="7.92" type="car" departLane="best" departSpeed="max" route="r_n_s_01_uturn" /><flow id="flow_40" begin="600" end="4200" vehsPerHour="5.38" type="car" departLane="best" departSpeed="max" route="r_s_n_01_right" /><flow id="flow_41" begin="600" end="4200" vehsPerHour="71.31" type="car" departLane="best" departSpeed="max" route="r_s_n_01_straight" /><flow id="flow_42" begin="600" end="4200" vehsPerHour="5.38" type="car" departLane="best" departSpeed="max" route="r_s_n_01_left" /><flow id="flow_43" begin="600" end="4200" vehsPerHour="7.92" type="car" departLane="best" departSpeed="max" route="r_s_n_01_uturn" /><flow id="flow_44" begin="600" end="4200" vehsPerHour="4.07" type="car" departLane="best" departSpeed="max" route="r_w_e_01_right" /><flow id="flow_45" begin="600" end="4200" vehsPerHour="53.88" type="car" departLane="best" departSpeed="max" route="r_w_e_01_straight" /><flow id="flow_46" begin="600" end="4200" vehsPerHour="4.07" type="car" departLane="best" departSpeed="max" route="r_w_e_01_left" /><flow id="flow_47" begin="600" end="4200" vehsPerHour="5.99" type="car" departLane="best" departSpeed="max" route="r_w_e_01_uturn" /><flow id="flow_48" begin="900" end="4500" vehsPerHour="3.17" type="car" departLane="best" departSpeed="max" route="r_e_w_01_right" /><flow id="flow_49" begin="900" end="4500" vehsPerHour="41.99" type="car" departLane="best" departSpeed="max" route="r_e_w_01_straight" /><flow id="flow_50" begin="900" end="4500" vehsPerHour="3.17" type="car" departLane="best" departSpeed="max" route="r_e_w_01_left" /><flow id="flow_51" begin="900" end="4500" vehsPerHour="4.67" type="car" departLane="best" departSpeed="max" route="r_e_w_01_uturn" /><flow id="flow_52" begin="900" end="4500" vehsPerHour="6.22" type="car" departLane="best" departSpeed="max" route="r_n_s_01_right" /><flow id="flow_53" begin="900" end="4500" vehsPerHour="82.41" type="car" departLane="best" departSpeed="max" route="r_n_s_01_straight" /><flow id="flow_54" begin="900" end="4500" vehsPerHour="6.22" type="car" departLane="best" departSpeed="max" route="r_n_s_01_left" /><flow id="flow_55" begin="900" end="4500" vehsPerHour="9.16" type="car" departLane="best" departSpeed="max" route="r_n_s_01_uturn" /><flow id="flow_56" begin="900" end="4500" vehsPerHour="6.22" type="car" departLane="best" departSpeed="max" route="r_s_n_01_right" /><flow id="flow_57" begin="900" end="4500" vehsPerHour="82.41" type="car" departLane="best" departSpeed="max" route="r_s_n_01_straight" /><flow id="flow_58" begin="900" end="4500" vehsPerHour="6.22" type="car" departLane="best" departSpeed="max" route="r_s_n_01_left" /><flow id="flow_59" begin="900" end="4500" vehsPerHour="9.16" type="car" departLane="best" departSpeed="max" route="r_s_n_01_uturn" /><flow id="flow_60" begin="900" end="4500" vehsPerHour="3.47" type="car" departLane="best" departSpeed="max" route="r_w_e_01_right" /><flow id="flow_61" begin="900" end="4500" vehsPerHour="45.96" type="car" departLane="best" departSpeed="max" route="r_w_e_01_straight" /><flow id="flow_62" begin="900" end="4500" vehsPerHour="3.47" type="car" departLane="best" departSpeed="max" route="r_w_e_01_left" /><flow id="flow_63" begin="900" end="4500" vehsPerHour="5.11" type="car" departLane="best" departSpeed="max" route="r_w_e_01_uturn" /><flow id="flow_64" begin="1200" end="4800" vehsPerHour="2.45" type="car" departLane="best" departSpeed="max" route="r_e_w_01_right" /><flow id="flow_65" begin="1200" end="4800" vehsPerHour="32.49" type="car" departLane="best" departSpeed="max" route="r_e_w_01_straight" /><flow id="flow_66" begin="1200" end="4800" vehsPerHour="2.45" type="car" departLane="best" departSpeed="max" route="r_e_w_01_left" /><flow id="flow_67" begin="1200" end="4800" vehsPerHour="3.61" type="car" departLane="best" departSpeed="max" route="r_e_w_01_uturn" /><flow id="flow_68" begin="1200" end="4800" vehsPerHour="5.14" type="car" departLane="best" departSpeed="max" route="r_n_s_01_right" /><flow id="flow_69" begin="1200" end="4800" vehsPerHour="68.14" type="car" departLane="best" departSpeed="max" route="r_n_s_01_straight" /><flow id="flow_70" begin="1200" end="4800" vehsPerHour="5.14" type="car" departLane="best" departSpeed="max" route="r_n_s_01_left" /><flow id="flow_71" begin="1200" end="4800" vehsPerHour="7.57" type="car" departLane="best" departSpeed="max" route="r_n_s_01_uturn" /><flow id="flow_72" begin="1200" end="4800" vehsPerHour="5.14" type="car" departLane="best" departSpeed="max" route="r_s_n_01_right" /><flow id="flow_73" begin="1200" end="4800" vehsPerHour="68.14" type="car" departLane="best" departSpeed="max" route="r_s_n_01_straight" /><flow id="flow_74" begin="1200" end="4800" vehsPerHour="5.14" type="car" departLane="best" departSpeed="max" route="r_s_n_01_left" /><flow id="flow_75" begin="1200" end="4800" vehsPerHour="7.57" type="car" departLane="best" departSpeed="max" route="r_s_n_01_uturn" /><flow id="flow_76" begin="1200" end="4800" vehsPerHour="3.11" type="car" departLane="best" departSpeed="max" route="r_w_e_01_right" /><flow id="flow_77" begin="1200" end="4800" vehsPerHour="41.20" type="car" departLane="best" departSpeed="max" route="r_w_e_01_straight" /><flow id="flow_78" begin="1200" end="4800" vehsPerHour="3.11" type="car" departLane="best" departSpeed="max" route="r_w_e_01_left" /><flow id="flow_79" begin="1200" end="4800" vehsPerHour="4.58" type="car" departLane="best" departSpeed="max" route="r_w_e_01_uturn" /><flow id="flow_80" begin="1500" end="5100" vehsPerHour="2.51" type="car" departLane="best" departSpeed="max" route="r_e_w_01_right" /><flow id="flow_81" begin="1500" end="5100" vehsPerHour="33.28" type="car" departLane="best" departSpeed="max" route="r_e_w_01_straight" /><flow id="flow_82" begin="1500" end="5100" vehsPerHour="2.51" type="car" departLane="best" departSpeed="max" route="r_e_w_01_left" /><flow id="flow_83" begin="1500" end="5100" vehsPerHour="3.70" type="car" departLane="best" departSpeed="max" route="r_e_w_01_uturn" /><flow id="flow_84" begin="1500" end="5100" vehsPerHour="6.16" type="car" departLane="best" departSpeed="max" route="r_n_s_01_right" /><flow id="flow_85" begin="1500" end="5100" vehsPerHour="81.61" type="car" departLane="best" departSpeed="max" route="r_n_s_01_straight" /><flow id="flow_86" begin="1500" end="5100" vehsPerHour="6.16" type="car" departLane="best" departSpeed="max" route="r_n_s_01_left" /><flow id="flow_87" begin="1500" end="5100" vehsPerHour="9.07" type="car" departLane="best" departSpeed="max" route="r_n_s_01_uturn" /><flow id="flow_88" begin="1500" end="5100" vehsPerHour="6.16" type="car" departLane="best" departSpeed="max" route="r_s_n_01_right" /><flow id="flow_89" begin="1500" end="5100" vehsPerHour="81.61" type="car" departLane="best" departSpeed="max" route="r_s_n_01_straight" /><flow id="flow_90" begin="1500" end="5100" vehsPerHour="6.16" type="car" departLane="best" departSpeed="max" route="r_s_n_01_left" /><flow id="flow_91" begin="1500" end="5100" vehsPerHour="9.07" type="car" departLane="best" departSpeed="max" route="r_s_n_01_uturn" /><flow id="flow_92" begin="1500" end="5100" vehsPerHour="2.63" type="car" departLane="best" departSpeed="max" route="r_w_e_01_right" /><flow id="flow_93" begin="1500" end="5100" vehsPerHour="34.86" type="car" departLane="best" departSpeed="max" route="r_w_e_01_straight" /><flow id="flow_94" begin="1500" end="5100" vehsPerHour="2.63" type="car" departLane="best" departSpeed="max" route="r_w_e_01_left" /><flow id="flow_95" begin="1500" end="5100" vehsPerHour="3.87" type="car" departLane="best" departSpeed="max" route="r_w_e_01_uturn" /><flow id="flow_96" begin="1800" end="5400" vehsPerHour="2.57" type="car" departLane="best" departSpeed="max" route="r_e_w_01_right" /><flow id="flow_97" begin="1800" end="5400" vehsPerHour="34.07" type="car" departLane="best" departSpeed="max" route="r_e_w_01_straight" /><flow id="flow_98" begin="1800" end="5400" vehsPerHour="2.57" type="car" departLane="best" departSpeed="max" route="r_e_w_01_left" /><flow id="flow_99" begin="1800" end="5400" vehsPerHour="3.79" type="car" departLane="best" departSpeed="max" route="r_e_w_01_uturn" /><flow id="flow_100" begin="1800" end="5400" vehsPerHour="5.56" type="car" departLane="best" departSpeed="max" route="r_n_s_01_right" /><flow id="flow_101" begin="1800" end="5400" vehsPerHour="73.69" type="car" departLane="best" departSpeed="max" route="r_n_s_01_straight" /><flow id="flow_102" begin="1800" end="5400" vehsPerHour="5.56" type="car" departLane="best" departSpeed="max" route="r_n_s_01_left" /><flow id="flow_103" begin="1800" end="5400" vehsPerHour="8.19" type="car" departLane="best" departSpeed="max" route="r_n_s_01_uturn" /><flow id="flow_104" begin="1800" end="5400" vehsPerHour="5.56" type="car" departLane="best" departSpeed="max" route="r_s_n_01_right" /><flow id="flow_105" begin="1800" end="5400" vehsPerHour="73.69" type="car" departLane="best" departSpeed="max" route="r_s_n_01_straight" /><flow id="flow_106" begin="1800" end="5400" vehsPerHour="5.56" type="car" departLane="best" departSpeed="max" route="r_s_n_01_left" /><flow id="flow_107" begin="1800" end="5400" vehsPerHour="8.19" type="car" departLane="best" departSpeed="max" route="r_s_n_01_uturn" /><flow id="flow_108" begin="1800" end="5400" vehsPerHour="2.51" type="car" departLane="best" departSpeed="max" route="r_w_e_01_right" /><flow id="flow_109" begin="1800" end="5400" vehsPerHour="33.28" type="car" departLane="best" departSpeed="max" route="r_w_e_01_straight" /><flow id="flow_110" begin="1800" end="5400" vehsPerHour="2.51" type="car" departLane="best" departSpeed="max" route="r_w_e_01_left" /><flow id="flow_111" begin="1800" end="5400" vehsPerHour="3.70" type="car" departLane="best" departSpeed="max" route="r_w_e_01_uturn" /><flow id="flow_112" begin="2100" end="5700" vehsPerHour="3.41" type="car" departLane="best" departSpeed="max" route="r_e_w_01_right" /><flow id="flow_113" begin="2100" end="5700" vehsPerHour="45.16" type="car" departLane="best" departSpeed="max" route="r_e_w_01_straight" /><flow id="flow_114" begin="2100" end="5700" vehsPerHour="3.41" type="car" departLane="best" departSpeed="max" route="r_e_w_01_left" /><flow id="flow_115" begin="2100" end="5700" vehsPerHour="5.02" type="car" departLane="best" departSpeed="max" route="r_e_w_01_uturn" /><flow id="flow_116" begin="2100" end="5700" vehsPerHour="5.92" type="car" departLane="best" departSpeed="max" route="r_n_s_01_right" /><flow id="flow_117" begin="2100" end="5700" vehsPerHour="78.44" type="car" departLane="best" departSpeed="max" route="r_n_s_01_straight" /><flow id="flow_118" begin="2100" end="5700" vehsPerHour="5.92" type="car" departLane="best" departSpeed="max" route="r_n_s_01_left" /><flow id="flow_119" begin="2100" end="5700" vehsPerHour="8.72" type="car" departLane="best" departSpeed="max" route="r_n_s_01_uturn" /><flow id="flow_120" begin="2100" end="5700" vehsPerHour="5.92" type="car" departLane="best" departSpeed="max" route="r_s_n_01_right" /><flow id="flow_121" begin="2100" end="5700" vehsPerHour="78.44" type="car" departLane="best" departSpeed="max" route="r_s_n_01_straight" /><flow id="flow_122" begin="2100" end="5700" vehsPerHour="5.92" type="car" departLane="best" departSpeed="max" route="r_s_n_01_left" /><flow id="flow_123" begin="2100" end="5700" vehsPerHour="8.72" type="car" departLane="best" departSpeed="max" route="r_s_n_01_uturn" /><flow id="flow_124" begin="2100" end="5700" vehsPerHour="2.27" type="car" departLane="best" departSpeed="max" route="r_w_e_01_right" /><flow id="flow_125" begin="2100" end="5700" vehsPerHour="30.11" type="car" departLane="best" departSpeed="max" route="r_w_e_01_straight" /><flow id="flow_126" begin="2100" end="5700" vehsPerHour="2.27" type="car" departLane="best" departSpeed="max" route="r_w_e_01_left" /><flow id="flow_127" begin="2100" end="5700" vehsPerHour="3.35" type="car" departLane="best" departSpeed="max" route="r_w_e_01_uturn" /><flow id="flow_128" begin="2400" end="6000" vehsPerHour="2.69" type="car" departLane="best" departSpeed="max" route="r_e_w_01_right" /><flow id="flow_129" begin="2400" end="6000" vehsPerHour="35.66" type="car" departLane="best" departSpeed="max" route="r_e_w_01_straight" /><flow id="flow_130" begin="2400" end="6000" vehsPerHour="2.69" type="car" departLane="best" departSpeed="max" route="r_e_w_01_left" /><flow id="flow_131" begin="2400" end="6000" vehsPerHour="3.96" type="car" departLane="best" departSpeed="max" route="r_e_w_01_uturn" /><flow id="flow_132" begin="2400" end="6000" vehsPerHour="5.92" type="car" departLane="best" departSpeed="max" route="r_n_s_01_right" /><flow id="flow_133" begin="2400" end="6000" vehsPerHour="78.44" type="car" departLane="best" departSpeed="max" route="r_n_s_01_straight" /><flow id="flow_134" begin="2400" end="6000" vehsPerHour="5.92" type="car" departLane="best" departSpeed="max" route="r_n_s_01_left" /><flow id="flow_135" begin="2400" end="6000" vehsPerHour="8.72" type="car" departLane="best" departSpeed="max" route="r_n_s_01_uturn" /><flow id="flow_136" begin="2400" end="6000" vehsPerHour="5.92" type="car" departLane="best" departSpeed="max" route="r_s_n_01_right" /><flow id="flow_137" begin="2400" end="6000" vehsPerHour="78.44" type="car" departLane="best" departSpeed="max" route="r_s_n_01_straight" /><flow id="flow_138" begin="2400" end="6000" vehsPerHour="5.92" type="car" departLane="best" departSpeed="max" route="r_s_n_01_left" /><flow id="flow_139" begin="2400" end="6000" vehsPerHour="8.72" type="car" departLane="best" departSpeed="max" route="r_s_n_01_uturn" /><flow id="flow_140" begin="2400" end="6000" vehsPerHour="2.63" type="car" departLane="best" departSpeed="max" route="r_w_e_01_right" /><flow id="flow_141" begin="2400" end="6000" vehsPerHour="34.86" type="car" departLane="best" departSpeed="max" route="r_w_e_01_straight" /><flow id="flow_142" begin="2400" end="6000" vehsPerHour="2.63" type="car" departLane="best" departSpeed="max" route="r_w_e_01_left" /><flow id="flow_143" begin="2400" end="6000" vehsPerHour="3.87" type="car" departLane="best" departSpeed="max" route="r_w_e_01_uturn" /><flow id="flow_144" begin="2700" end="6300" vehsPerHour="3.05" type="car" departLane="best" departSpeed="max" route="r_e_w_01_right" /><flow id="flow_145" begin="2700" end="6300" vehsPerHour="40.41" type="car" departLane="best" departSpeed="max" route="r_e_w_01_straight" /><flow id="flow_146" begin="2700" end="6300" vehsPerHour="3.05" type="car" departLane="best" departSpeed="max" route="r_e_w_01_left" /><flow id="flow_147" begin="2700" end="6300" vehsPerHour="4.49" type="car" departLane="best" departSpeed="max" route="r_e_w_01_uturn" /><flow id="flow_148" begin="2700" end="6300" vehsPerHour="7.30" type="car" departLane="best" departSpeed="max" route="r_n_s_01_right" /><flow id="flow_149" begin="2700" end="6300" vehsPerHour="96.67" type="car" departLane="best" departSpeed="max" route="r_n_s_01_straight" /><flow id="flow_150" begin="2700" end="6300" vehsPerHour="7.30" type="car" departLane="best" departSpeed="max" route="r_n_s_01_left" /><flow id="flow_151" begin="2700" end="6300" vehsPerHour="10.74" type="car" departLane="best" departSpeed="max" route="r_n_s_01_uturn" /><flow id="flow_152" begin="2700" end="6300" vehsPerHour="7.30" type="car" departLane="best" departSpeed="max" route="r_s_n_01_right" /><flow id="flow_153" begin="2700" end="6300" vehsPerHour="96.67" type="car" departLane="best" departSpeed="max" route="r_s_n_01_straight" /><flow id="flow_154" begin="2700" end="6300" vehsPerHour="7.30" type="car" departLane="best" departSpeed="max" route="r_s_n_01_left" /><flow id="flow_155" begin="2700" end="6300" vehsPerHour="10.74" type="car" departLane="best" departSpeed="max" route="r_s_n_01_uturn" /><flow id="flow_156" begin="2700" end="6300" vehsPerHour="2.87" type="car" departLane="best" departSpeed="max" route="r_w_e_01_right" /><flow id="flow_157" begin="2700" end="6300" vehsPerHour="38.03" type="car" departLane="best" departSpeed="max" route="r_w_e_01_straight" /><flow id="flow_158" begin="2700" end="6300" vehsPerHour="2.87" type="car" departLane="best" departSpeed="max" route="r_w_e_01_left" /><flow id="flow_159" begin="2700" end="6300" vehsPerHour="4.23" type="car" departLane="best" departSpeed="max" route="r_w_e_01_uturn" /><flow id="flow_160" begin="3000" end="6600" vehsPerHour="2.69" type="car" departLane="best" departSpeed="max" route="r_e_w_01_right" /><flow id="flow_161" begin="3000" end="6600" vehsPerHour="35.66" type="car" departLane="best" departSpeed="max" route="r_e_w_01_straight" /><flow id="flow_162" begin="3000" end="6600" vehsPerHour="2.69" type="car" departLane="best" departSpeed="max" route="r_e_w_01_left" /><flow id="flow_163" begin="3000" end="6600" vehsPerHour="3.96" type="car" departLane="best" departSpeed="max" route="r_e_w_01_uturn" /><flow id="flow_164" begin="3000" end="6600" vehsPerHour="7.54" type="car" departLane="best" departSpeed="max" route="r_n_s_01_right" /><flow id="flow_165" begin="3000" end="6600" vehsPerHour="99.84" type="car" departLane="best" departSpeed="max" route="r_n_s_01_straight" /><flow id="flow_166" begin="3000" end="6600" vehsPerHour="7.54" type="car" departLane="best" departSpeed="max" route="r_n_s_01_left" /><flow id="flow_167" begin="3000" end="6600" vehsPerHour="11.09" type="car" departLane="best" departSpeed="max" route="r_n_s_01_uturn" /><flow id="flow_168" begin="3000" end="6600" vehsPerHour="7.54" type="car" departLane="best" departSpeed="max" route="r_s_n_01_right" /><flow id="flow_169" begin="3000" end="6600" vehsPerHour="99.84" type="car" departLane="best" departSpeed="max" route="r_s_n_01_straight" /><flow id="flow_170" begin="3000" end="6600" vehsPerHour="7.54" type="car" departLane="best" departSpeed="max" route="r_s_n_01_left" /><flow id="flow_171" begin="3000" end="6600" vehsPerHour="11.09" type="car" departLane="best" departSpeed="max" route="r_s_n_01_uturn" /><flow id="flow_172" begin="3000" end="6600" vehsPerHour="1.97" type="car" departLane="best" departSpeed="max" route="r_w_e_01_right" /><flow id="flow_173" begin="3000" end="6600" vehsPerHour="26.15" type="car" departLane="best" departSpeed="max" route="r_w_e_01_straight" /><flow id="flow_174" begin="3000" end="6600" vehsPerHour="1.97" type="car" departLane="best" departSpeed="max" route="r_w_e_01_left" /><flow id="flow_175" begin="3000" end="6600" vehsPerHour="2.91" type="car" departLane="best" departSpeed="max" route="r_w_e_01_uturn" /><flow id="flow_176" begin="3300" end="6900" vehsPerHour="2.93" type="car" departLane="best" departSpeed="max" route="r_e_w_01_right" /><flow id="flow_177" begin="3300" end="6900" vehsPerHour="38.83" type="car" departLane="best" departSpeed="max" route="r_e_w_01_straight" /><flow id="flow_178" begin="3300" end="6900" vehsPerHour="2.93" type="car" departLane="best" departSpeed="max" route="r_e_w_01_left" /><flow id="flow_179" begin="3300" end="6900" vehsPerHour="4.31" type="car" departLane="best" departSpeed="max" route="r_e_w_01_uturn" /><flow id="flow_180" begin="3300" end="6900" vehsPerHour="6.46" type="car" departLane="best" departSpeed="max" route="r_n_s_01_right" /><flow id="flow_181" begin="3300" end="6900" vehsPerHour="85.57" type="car" departLane="best" departSpeed="max" route="r_n_s_01_straight" /><flow id="flow_182" begin="3300" end="6900" vehsPerHour="6.46" type="car" departLane="best" departSpeed="max" route="r_n_s_01_left" /><flow id="flow_183" begin="3300" end="6900" vehsPerHour="9.51" type="car" departLane="best" departSpeed="max" route="r_n_s_01_uturn" /><flow id="flow_184" begin="3300" end="6900" vehsPerHour="6.46" type="car" departLane="best" departSpeed="max" route="r_s_n_01_right" /><flow id="flow_185" begin="3300" end="6900" vehsPerHour="85.57" type="car" departLane="best" departSpeed="max" route="r_s_n_01_straight" /><flow id="flow_186" begin="3300" end="6900" vehsPerHour="6.46" type="car" departLane="best" departSpeed="max" route="r_s_n_01_left" /><flow id="flow_187" begin="3300" end="6900" vehsPerHour="9.51" type="car" departLane="best" departSpeed="max" route="r_s_n_01_uturn" /><flow id="flow_188" begin="3300" end="6900" vehsPerHour="2.57" type="car" departLane="best" departSpeed="max" route="r_w_e_01_right" /><flow id="flow_189" begin="3300" end="6900" vehsPerHour="34.07" type="car" departLane="best" departSpeed="max" route="r_w_e_01_straight" /><flow id="flow_190" begin="3300" end="6900" vehsPerHour="2.57" type="car" departLane="best" departSpeed="max" route="r_w_e_01_left" /><flow id="flow_191" begin="3300" end="6900" vehsPerHour="3.79" type="car" departLane="best" departSpeed="max" route="r_w_e_01_uturn" /><flow id="flow_192" begin="3600" end="7200" vehsPerHour="2.45" type="car" departLane="best" departSpeed="max" route="r_e_w_01_right" /><flow id="flow_193" begin="3600" end="7200" vehsPerHour="32.49" type="car" departLane="best" departSpeed="max" route="r_e_w_01_straight" /><flow id="flow_194" begin="3600" end="7200" vehsPerHour="2.45" type="car" departLane="best" departSpeed="max" route="r_e_w_01_left" /><flow id="flow_195" begin="3600" end="7200" vehsPerHour="3.61" type="car" departLane="best" departSpeed="max" route="r_e_w_01_uturn" /><flow id="flow_196" begin="3600" end="7200" vehsPerHour="7.24" type="car" departLane="best" departSpeed="max" route="r_n_s_01_right" /><flow id="flow_197" begin="3600" end="7200" vehsPerHour="95.88" type="car" departLane="best" departSpeed="max" route="r_n_s_01_straight" /><flow id="flow_198" begin="3600" end="7200" vehsPerHour="7.24" type="car" departLane="best" departSpeed="max" route="r_n_s_01_left" /><flow id="flow_199" begin="3600" end="7200" vehsPerHour="10.65" type="car" departLane="best" departSpeed="max" route="r_n_s_01_uturn" /><flow id="flow_200" begin="3600" end="7200" vehsPerHour="7.24" type="car" departLane="best" departSpeed="max" route="r_s_n_01_right" /><flow id="flow_201" begin="3600" end="7200" vehsPerHour="95.88" type="car" departLane="best" departSpeed="max" route="r_s_n_01_straight" /><flow id="flow_202" begin="3600" end="7200" vehsPerHour="7.24" type="car" departLane="best" departSpeed="max" route="r_s_n_01_left" /><flow id="flow_203" begin="3600" end="7200" vehsPerHour="10.65" type="car" departLane="best" departSpeed="max" route="r_s_n_01_uturn" /><flow id="flow_204" begin="3600" end="7200" vehsPerHour="2.69" type="car" departLane="best" departSpeed="max" route="r_w_e_01_right" /><flow id="flow_205" begin="3600" end="7200" vehsPerHour="35.66" type="car" departLane="best" departSpeed="max" route="r_w_e_01_straight" /><flow id="flow_206" begin="3600" end="7200" vehsPerHour="2.69" type="car" departLane="best" departSpeed="max" route="r_w_e_01_left" /><flow id="flow_207" begin="3600" end="7200" vehsPerHour="3.96" type="car" departLane="best" departSpeed="max" route="r_w_e_01_uturn" /><flow id="flow_208" begin="3900" end="7500" vehsPerHour="2.51" type="car" departLane="best" departSpeed="max" route="r_e_w_01_right" /><flow id="flow_209" begin="3900" end="7500" vehsPerHour="33.28" type="car" departLane="best" departSpeed="max" route="r_e_w_01_straight" /><flow id="flow_210" begin="3900" end="7500" vehsPerHour="2.51" type="car" departLane="best" departSpeed="max" route="r_e_w_01_left" /><flow id="flow_211" begin="3900" end="7500" vehsPerHour="3.70" type="car" departLane="best" departSpeed="max" route="r_e_w_01_uturn" /><flow id="flow_212" begin="3900" end="7500" vehsPerHour="7.18" type="car" departLane="best" departSpeed="max" route="r_n_s_01_right" /><flow id="flow_213" begin="3